@<TRIPOS>MOLECULE
1UYD.A
52 54 1 0 0 
SMALL
USER_CHARGES


@<TRIPOS>ATOM
  1 C19      4.4030    15.5280    26.5790 C.3   1 PU8   0.1178 
  2 H191     4.6531    16.5692    26.7824 H     1 PU8   0.0473 
  3 H192     4.6653    14.9161    27.4420 H     1 PU8   0.0473 
  4 H193     3.3339    15.4425    26.3844 H     1 PU8   0.0473 
  5 O3       5.1220    15.0840    25.4530 O.3   1 PU8  -0.3330 
  6 C5       5.0910    13.7860    24.8460 C.ar  1 PU8   0.1119 
  7 C6       3.9590    13.1780    24.2910 C.ar  1 PU8  -0.0180 
  8 C4       6.3240    13.1530    24.7740 C.ar  1 PU8   0.0760 
  9 O1       7.4370    13.8000    25.3630 O.3   1 PU8  -0.3171 
 10 C7       7.9680    14.9820    24.7400 C.3   1 PU8   0.1171 
 11 H71      8.8156    15.3485    25.3192 H     1 PU8   0.0454 
 12 H72      7.1956    15.7501    24.7005 H     1 PU8   0.0454 
 13 H73      8.2954    14.7435    23.7280 H     1 PU8   0.0454 
 14 C3       6.4650    11.9280    24.1660 C.ar  1 PU8   0.1217 
 15 O2       7.7380    11.2760    24.1460 O.3   1 PU8  -0.3054 
 16 C8       8.1250    10.3750    23.0920 C.3   1 PU8   0.1078 
 17 H81      9.1302    10.0003    23.2852 H     1 PU8   0.0469 
 18 H82      8.1112    10.9036    22.1388 H     1 PU8   0.0469 
 19 H83      7.4267     9.5390    23.0540 H     1 PU8   0.0469 
 20 C2       5.3500    11.3260    23.6130 C.ar  1 PU8  -0.2047 
 21 H2       5.4553    10.3635    23.1345 H     1 PU8   0.1457 
 22 C1       4.1060    11.9220    23.6560 C.ar  1 PU8  -0.0489 
 23 C9       2.9810    11.1340    22.9970 C.3   1 PU8  -0.0456 
 24 H91      3.3751    10.1665    22.6860 H     1 PU8   0.0827 
 25 H92      2.6414    11.6866    22.1210 H     1 PU8   0.0827 
 26 C10      1.7990    10.8980    23.8970 C.2   1 PU8   0.4041 
 27 N1       0.5690    11.3430    23.6650 N.2   1 PU8  -0.5404 
 28 C11     -0.1860    10.9430    24.6660 C.ar  1 PU8  -0.2279 
 29 C13     -1.5340    11.1210    24.9450 C.ar  1 PU8   0.7611 
 30 N5      -2.4390    11.8290    24.0330 N.pl3 1 PU8  -0.9606 
 31 H51     -3.4111    11.9495    24.2790 H     1 PU8   0.4468 
 32 H52     -2.0899    12.1959    23.1591 H     1 PU8   0.4468 
 33 C12      0.6250    10.2700    25.5670 C.ar  1 PU8   0.4531 
 34 N4       0.1180     9.7800    26.7170 N.ar  1 PU8  -0.7354 
 35 C14     -1.1950     9.9850    26.9470 C.ar  1 PU8   0.6840 
 36 H14     -1.6210     9.6032    27.8630 H     1 PU8   0.0498 
 37 N3      -2.0040    10.6440    26.0890 N.ar  1 PU8  -0.8002 
 38 N2       1.8540    10.2510    25.0560 N.pl3 1 PU8  -0.2444 
 39 C15      3.0530     9.6350    25.6380 C.3   1 PU8   0.0448 
 40 H151     3.1774     9.9847    26.6629 H     1 PU8   0.0646 
 41 H152     3.9259     9.9172    25.0493 H     1 PU8   0.0646 
 42 C16      2.9130     8.1310    25.6360 C.3   1 PU8  -0.0960 
 43 H161     1.8504     7.9206    25.5145 H     1 PU8   0.0635 
 44 H162     3.2410     7.7897    26.6178 H     1 PU8   0.0636 
 45 C17      3.6440     7.2660    24.6120 C.3   1 PU8  -0.0821 
 46 H171     2.8799     6.8102    23.9823 H     1 PU8   0.0461 
 47 H172     4.1651     6.4889    25.1712 H     1 PU8   0.0461 
 48 C18      4.6650     7.8940    23.6780 C.3   1 PU8  -0.0958 
 49 H181     4.1877     8.6813    23.0946 H     1 PU8   0.0310 
 50 H182     5.0595     7.1320    23.0058 H     1 PU8   0.0310 
 51 H183     5.4801     8.3191    24.2637 H     1 PU8   0.0310 
 52 CL       2.4190    14.0030    24.3670 Cl    1 PU8  -0.0584 
@<TRIPOS>BOND
  1   1   2  1   
  2   1   3  1   
  3   1   4  1   
  4   1   5  1   
  5   5   6  1   
  6   6   7  ar  
  7   6   8  ar  
  8   7  22  ar  
  9   7  52  1   
 10   8   9  1   
 11   8  14  ar  
 12   9  10  1   
 13  10  11  1   
 14  10  12  1   
 15  10  13  1   
 16  14  15  1   
 17  14  20  ar  
 18  15  16  1   
 19  16  17  1   
 20  16  18  1   
 21  16  19  1   
 22  20  21  1   
 23  20  22  ar  
 24  22  23  1   
 25  23  24  1   
 26  23  25  1   
 27  23  26  1   
 28  26  27  2   
 29  26  38  1   
 30  27  28  1   
 31  28  29  ar  
 32  28  33  ar  
 33  29  30  1   
 34  29  37  ar  
 35  30  31  1   
 36  30  32  1   
 37  33  34  ar  
 38  33  38  1   
 39  34  35  ar  
 40  35  36  1   
 41  35  37  ar  
 42  38  39  1   
 43  39  40  1   
 44  39  41  1   
 45  39  42  1   
 46  42  43  1   
 47  42  44  1   
 48  42  45  1   
 49  45  46  1   
 50  45  47  1   
 51  45  48  1   
 52  48  49  1   
 53  48  50  1   
 54  48  51  1   
@<TRIPOS>SUBSTRUCTURE
  1 PU8  22 GROUP 4 A **** 0

# MOE 2016.08 (io_trps.svl 2017.01)
